/* WARNING: DO NOT EDIT this file! Any user changes made in files
        in RUNDIR will be overriden. This file is automatically generated.
        MOM6 parameter changes may ve made via SourceMods or user_nl_mom
        within CASEROOT.*/
#override REMAP_VEL_CONSERVE_KE = True
#override MAXTRUNC = 1000
#override MIN_SALINITY = 1.e-06
#override USE_CFC_CAP = True
CEMP_NL = 2.0
!!! WAVE_METHOD = SURFACE_BANDS !(UNCHANGED)
!!! SURFBAND_SOURCE = COUPLER !(UNCHANGED)
!!! STOKES_DDT = True !(UNCHANGED)
!!! STOKES_VF = True !(UNCHANGED)
!!! STOKES_PGF = True !(UNCHANGED)
#override STK_BAND_COUPLER = 3 ; 4
!!! SURFBAND_WAVENUMBERS = 0.04, 0.11, 0.33 !(UNCHANGED)
#override GUST_CONST = 0.0004 
FPMIX = True

KPP%
STOKES_MOST = True 
%KPP

