2024-08-30 15:14:10: xmlchange success <command> ./xmlchange --append CAM_CONFIG_OPTS=-rad rrtmgp  </command>
 ---------------------------------------------------
2024-08-30 15:14:10: case.setup starting 
 ---------------------------------------------------
2024-08-30 15:14:15: case.setup success 
 ---------------------------------------------------
2024-08-30 15:14:23: xmlchange success <command> ./xmlchange RUN_REFCASE=b.e23_alpha17f.BLT1850.ne30_t232.098  </command>
 ---------------------------------------------------
2024-08-30 15:14:24: xmlchange success <command> ./xmlchange RUN_REFDATE=0201-01-01  </command>
 ---------------------------------------------------
2024-08-30 15:14:24: xmlchange success <command> ./xmlchange RUN_TYPE=hybrid  </command>
 ---------------------------------------------------
2024-08-30 15:14:25: xmlchange success <command> ./xmlchange GET_REFCASE=true  </command>
 ---------------------------------------------------
2024-08-30 15:14:25: xmlchange success <command> ./xmlchange RUN_REFDIR=cesm2_init  </command>
 ---------------------------------------------------
2024-08-30 15:14:26: xmlchange success <command> ./xmlchange MOM6_VERTICAL_GRID=hycom1  </command>
 ---------------------------------------------------
2024-08-30 15:15:06: case.build starting 
 ---------------------------------------------------
2024-08-30 15:32:59: case.build success 
 ---------------------------------------------------
2024-08-30 15:33:51: xmlchange success <command> ./xmlchange PROJECT=CESM0023,RESUBMIT=10,STOP_N=2,STOP_OPTION=nyears  </command>
 ---------------------------------------------------
2024-08-30 15:33:51: xmlchange success <command> ./xmlchange CHARGE_ACCOUNT=CESM0023  </command>
 ---------------------------------------------------
2024-08-30 15:33:52: xmlchange success <command> ./xmlchange REST_OPTION=nyears,REST_N=1  </command>
 ---------------------------------------------------
2024-08-30 15:33:52: xmlchange success <command> ./xmlchange JOB_WALLCLOCK_TIME=12:00:00 --subgroup case.run  </command>
 ---------------------------------------------------
2024-08-30 15:33:59: case.submit starting 
 ---------------------------------------------------
2024-08-30 15:33:59: case.submit error 
ERROR: Error in parsing namelist: expected literal value, but got 'xgrid'
 ---------------------------------------------------
2024-08-30 20:28:28: case.submit starting 5870919.desched1
 ---------------------------------------------------
2024-08-30 20:28:28: case.submit success 5870919.desched1
 ---------------------------------------------------
2024-08-30 20:28:46: case.run starting 5870918.desched1
 ---------------------------------------------------
2024-08-30 20:28:58: model execution starting 5870918.desched1
 ---------------------------------------------------
2024-08-31 01:13:26: model execution success 5870918.desched1
 ---------------------------------------------------
2024-08-31 01:13:26: case.run success 5870918.desched1
 ---------------------------------------------------
2024-08-31 01:13:51: st_archive starting 5870919.desched1
 ---------------------------------------------------
2024-08-31 01:14:29: st_archive success 5870919.desched1
 ---------------------------------------------------
2024-08-31 01:14:30: case.submit starting 5874265.desched1
 ---------------------------------------------------
2024-08-31 01:14:30: case.submit success 5874265.desched1
 ---------------------------------------------------
2024-08-31 01:14:45: case.run starting 5874264.desched1
 ---------------------------------------------------
2024-08-31 01:14:53: model execution starting 5874264.desched1
 ---------------------------------------------------
2024-08-31 05:56:34: model execution success 5874264.desched1
 ---------------------------------------------------
2024-08-31 05:56:34: case.run success 5874264.desched1
 ---------------------------------------------------
2024-08-31 05:56:54: st_archive starting 5874265.desched1
 ---------------------------------------------------
2024-08-31 05:57:30: st_archive success 5874265.desched1
 ---------------------------------------------------
2024-08-31 05:57:30: case.submit starting 5877542.desched1
 ---------------------------------------------------
2024-08-31 05:57:30: case.submit success 5877542.desched1
 ---------------------------------------------------
2024-08-31 05:57:46: case.run starting 5877541.desched1
 ---------------------------------------------------
2024-08-31 05:57:53: model execution starting 5877541.desched1
 ---------------------------------------------------
2024-08-31 10:39:39: model execution success 5877541.desched1
 ---------------------------------------------------
2024-08-31 10:39:39: case.run success 5877541.desched1
 ---------------------------------------------------
2024-08-31 10:40:02: st_archive starting 5877542.desched1
 ---------------------------------------------------
2024-08-31 10:41:04: st_archive success 5877542.desched1
 ---------------------------------------------------
2024-08-31 10:41:06: case.submit starting 5881142.desched1
 ---------------------------------------------------
2024-08-31 10:41:06: case.submit success 5881142.desched1
 ---------------------------------------------------
2024-08-31 10:41:25: case.run starting 5881141.desched1
 ---------------------------------------------------
2024-08-31 10:41:32: model execution starting 5881141.desched1
 ---------------------------------------------------
2024-08-31 15:27:39: model execution success 5881141.desched1
 ---------------------------------------------------
2024-08-31 15:27:40: case.run success 5881141.desched1
 ---------------------------------------------------
2024-08-31 15:27:58: st_archive starting 5881142.desched1
 ---------------------------------------------------
2024-08-31 15:28:55: st_archive success 5881142.desched1
 ---------------------------------------------------
2024-08-31 15:28:56: case.submit starting 5882820.desched1
 ---------------------------------------------------
2024-08-31 15:28:56: case.submit success 5882820.desched1
 ---------------------------------------------------
2024-08-31 15:29:13: case.run starting 5882819.desched1
 ---------------------------------------------------
2024-08-31 15:29:18: model execution starting 5882819.desched1
 ---------------------------------------------------
2024-08-31 20:24:26: model execution success 5882819.desched1
 ---------------------------------------------------
2024-08-31 20:24:26: case.run success 5882819.desched1
 ---------------------------------------------------
2024-08-31 20:24:46: st_archive starting 5882820.desched1
 ---------------------------------------------------
2024-08-31 20:25:41: st_archive success 5882820.desched1
 ---------------------------------------------------
2024-08-31 20:25:41: case.submit starting 5884903.desched1
 ---------------------------------------------------
2024-08-31 20:25:41: case.submit success 5884903.desched1
 ---------------------------------------------------
2024-08-31 20:26:04: case.run starting 5884902.desched1
 ---------------------------------------------------
2024-08-31 20:26:15: model execution starting 5884902.desched1
 ---------------------------------------------------
2024-09-01 01:11:10: model execution success 5884902.desched1
 ---------------------------------------------------
2024-09-01 01:11:10: case.run success 5884902.desched1
 ---------------------------------------------------
2024-09-01 01:11:32: st_archive starting 5884903.desched1
 ---------------------------------------------------
2024-09-01 01:12:17: st_archive success 5884903.desched1
 ---------------------------------------------------
2024-09-01 01:12:18: case.submit starting 5887552.desched1
 ---------------------------------------------------
2024-09-01 01:12:18: case.submit success 5887552.desched1
 ---------------------------------------------------
2024-09-01 01:12:39: case.run starting 5887551.desched1
 ---------------------------------------------------
2024-09-01 01:12:51: model execution starting 5887551.desched1
 ---------------------------------------------------
2024-09-01 05:56:26: model execution success 5887551.desched1
 ---------------------------------------------------
2024-09-01 05:56:26: case.run success 5887551.desched1
 ---------------------------------------------------
2024-09-01 06:03:59: st_archive starting 5887552.desched1
 ---------------------------------------------------
2024-09-01 06:05:00: st_archive success 5887552.desched1
 ---------------------------------------------------
2024-09-01 06:05:00: case.submit starting 5889386.desched1
 ---------------------------------------------------
2024-09-01 06:05:00: case.submit success 5889386.desched1
 ---------------------------------------------------
2024-09-01 06:23:17: case.run starting 5889385.desched1
 ---------------------------------------------------
2024-09-01 06:23:28: model execution starting 5889385.desched1
 ---------------------------------------------------
2024-09-01 11:09:50: model execution success 5889385.desched1
 ---------------------------------------------------
2024-09-01 11:09:50: case.run success 5889385.desched1
 ---------------------------------------------------
2024-09-01 11:10:21: st_archive starting 5889386.desched1
 ---------------------------------------------------
2024-09-01 11:11:25: st_archive success 5889386.desched1
 ---------------------------------------------------
2024-09-01 11:11:25: case.submit starting 5890881.desched1
 ---------------------------------------------------
2024-09-01 11:11:25: case.submit success 5890881.desched1
 ---------------------------------------------------
2024-09-01 11:11:53: case.run starting 5890879.desched1
 ---------------------------------------------------
2024-09-01 11:12:07: model execution starting 5890879.desched1
 ---------------------------------------------------
2024-09-01 15:59:02: model execution success 5890879.desched1
 ---------------------------------------------------
2024-09-01 15:59:02: case.run success 5890879.desched1
 ---------------------------------------------------
2024-09-01 15:59:28: st_archive starting 5890881.desched1
 ---------------------------------------------------
2024-09-01 16:00:52: st_archive success 5890881.desched1
 ---------------------------------------------------
2024-09-01 16:00:56: case.submit starting 5891695.desched1
 ---------------------------------------------------
2024-09-01 16:00:56: case.submit success 5891695.desched1
 ---------------------------------------------------
2024-09-01 16:01:25: case.run starting 5891694.desched1
 ---------------------------------------------------
2024-09-01 16:01:47: model execution starting 5891694.desched1
 ---------------------------------------------------
2024-09-01 20:48:12: model execution success 5891694.desched1
 ---------------------------------------------------
2024-09-01 20:48:12: case.run success 5891694.desched1
 ---------------------------------------------------
2024-09-01 20:48:33: st_archive starting 5891695.desched1
 ---------------------------------------------------
2024-09-01 20:49:28: st_archive success 5891695.desched1
 ---------------------------------------------------
2024-09-01 20:49:29: case.submit starting 5893165.desched1
 ---------------------------------------------------
2024-09-01 20:49:29: case.submit success 5893165.desched1
 ---------------------------------------------------
2024-09-01 20:49:50: case.run starting 5893164.desched1
 ---------------------------------------------------
2024-09-01 20:50:01: model execution starting 5893164.desched1
 ---------------------------------------------------
2024-09-02 01:34:42: model execution success 5893164.desched1
 ---------------------------------------------------
2024-09-02 01:34:43: case.run success 5893164.desched1
 ---------------------------------------------------
2024-09-02 01:35:07: st_archive starting 5893165.desched1
 ---------------------------------------------------
2024-09-02 01:36:24: st_archive success 5893165.desched1
 ---------------------------------------------------
