histaux_l2x1yrg = .true.
aoflux_grid = 'xgrid'


